9
Title
C         -4.08000        1.73450        0.00000
H         -3.72330        0.72570        0.00000
H         -3.72330        2.23890       -0.87370
H         -5.15000        1.73460        0.00000
I         -3.38000        2.72450        1.71460
C         -3.38010        0.90580        2.76470
H         -2.69410        0.22710        2.30250
H         -3.08250        1.07890        3.77780
H         -4.36370        0.48490        2.74880
