10
Reactant
C         -0.74277        0.14309        0.12635
C          0.71308       -0.12855       -0.16358
Cl         0.90703       -0.47793       -1.61303
H         -0.84928        0.38704        1.20767
H         -1.36298       -0.72675       -0.06978
H         -1.11617        0.99405       -0.43583
H          1.06397       -0.95639        0.44985
H          1.30839        0.75217        0.07028
O         -0.91651        0.74066        3.00993
H         -1.82448        0.94856        3.28105
10
Product
C         -0.89816        0.30949        0.13095
C          0.41712        0.14751        0.20321
Cl         1.32706       -0.97006       -2.40987
H         -1.14270        0.57588        2.51484
H         -1.57182       -0.52496        0.20609
H         -1.34211        1.27553       -0.03286
H          0.86001       -0.81888        0.34553
H          1.09447        0.97622        0.10901
O         -1.18361        0.65508        3.47337
H         -1.98467        1.14237        3.68042
